Version 4
SHEET 1 1044 680
WIRE -240 -144 -400 -144
WIRE -80 -144 -240 -144
WIRE 64 -144 -80 -144
WIRE 192 -144 64 -144
WIRE 272 -144 192 -144
WIRE 416 -144 368 -144
WIRE -240 -112 -240 -144
WIRE 64 -112 64 -144
WIRE -400 -64 -400 -144
WIRE -80 -48 -80 -144
WIRE 416 -48 416 -144
WIRE 192 -16 192 -144
WIRE -240 0 -240 -32
WIRE -144 0 -240 0
WIRE 64 32 64 -32
WIRE 128 32 64 32
WIRE -400 80 -400 16
WIRE -80 80 -80 48
WIRE 64 80 64 32
WIRE 64 80 -80 80
WIRE -240 128 -240 0
WIRE 64 128 64 80
WIRE 96 128 64 128
WIRE 192 128 192 80
WIRE 192 128 160 128
WIRE 288 128 288 -96
WIRE 288 128 192 128
WIRE 416 128 416 32
WIRE 64 192 64 128
WIRE -240 304 -240 192
WIRE -192 304 -240 304
WIRE -80 304 -128 304
WIRE -48 304 -80 304
WIRE 64 304 64 256
WIRE 64 304 16 304
WIRE 64 352 64 304
WIRE -240 400 -240 304
WIRE -192 400 -240 400
WIRE -80 400 -80 304
WIRE -80 400 -112 400
WIRE 0 400 -80 400
WIRE -240 448 -240 400
WIRE -240 576 -240 528
WIRE 64 576 64 448
FLAG -400 80 0
FLAG 416 128 0
FLAG -240 576 0
FLAG 64 576 0
SYMBOL npn 128 -16 R0
SYMATTR InstName Q1
SYMATTR Value BC847C
SYMBOL Misc\\EuropeanResistor 48 -128 R0
SYMATTR InstName R2
SYMATTR Value 10k
SYMBOL voltage -400 -80 R0
WINDOW 123 0 0 Left 2
WINDOW 39 0 0 Left 2
SYMATTR InstName V1
SYMATTR Value 14V
SYMBOL pmos 368 -96 M270
SYMATTR InstName M1
SYMATTR Value FDS4953
SYMBOL Misc\\EuropeanResistor 400 -64 R0
SYMATTR InstName R3
SYMATTR Value 10R
SYMBOL voltage -240 432 R0
WINDOW 123 0 0 Left 2
WINDOW 39 24 124 Left 2
SYMATTR SpiceLine Rser=100
SYMATTR InstName V2
SYMATTR Value PULSE(0 5 0 10n 10n 2u 4u)
SYMBOL diode 160 112 R90
WINDOW 0 0 32 VBottom 2
WINDOW 3 32 32 VTop 2
SYMATTR InstName D1
SYMATTR Value 1N4148
SYMBOL zener 48 256 M180
WINDOW 0 24 64 Left 2
WINDOW 3 24 0 Left 2
SYMATTR InstName D3
SYMATTR Value TDZ6_2B
SYMATTR Description Diode
SYMATTR Type diode
SYMBOL npn 0 352 R0
SYMATTR InstName Q2
SYMATTR Value BC847C
SYMBOL Misc\\EuropeanResistor -96 384 R90
WINDOW 0 5 56 VBottom 2
WINDOW 3 27 56 VTop 2
SYMATTR InstName R1
SYMATTR Value 4k7
SYMBOL schottky -48 320 R270
WINDOW 0 32 32 VTop 2
WINDOW 3 0 32 VBottom 2
SYMATTR InstName D2
SYMATTR Value RB421D
SYMATTR Description Diode
SYMATTR Type diode
SYMBOL cap -128 288 R90
WINDOW 0 0 32 VBottom 2
WINDOW 3 32 32 VTop 2
SYMATTR InstName C1
SYMATTR Value 220pF
SYMBOL pnp -144 48 M180
WINDOW 0 62 32 Left 2
WINDOW 3 63 67 Left 2
SYMATTR InstName Q3
SYMATTR Value BC557C
SYMBOL Misc\\EuropeanResistor -256 -128 R0
SYMATTR InstName R4
SYMATTR Value 1k
SYMBOL cap -256 128 R0
SYMATTR InstName C2
SYMATTR Value 220pF
TEXT 112 576 Left 2 !.tran 10u
