Version 4
SHEET 1 964 740
WIRE 0 0 -64 0
WIRE 176 0 112 0
WIRE 0 32 0 0
WIRE 112 32 112 0
WIRE 272 128 256 128
WIRE 352 128 336 128
WIRE 464 128 432 128
WIRE 32 240 -48 240
WIRE 256 240 256 128
WIRE 256 240 32 240
WIRE 320 240 256 240
WIRE -48 256 -48 240
WIRE 32 256 32 240
WIRE 464 256 464 128
WIRE 464 256 384 256
WIRE 512 256 464 256
WIRE 320 272 192 272
WIRE -48 352 -48 320
WIRE 32 352 32 336
WIRE 32 352 -48 352
WIRE 192 368 192 272
WIRE 320 368 192 368
WIRE 464 368 464 256
WIRE 464 368 400 368
WIRE -48 384 -48 352
WIRE 192 384 192 368
WIRE 464 384 464 368
WIRE 464 464 464 448
WIRE 192 480 192 448
WIRE 192 480 96 480
WIRE 96 544 96 480
WIRE 240 560 240 544
WIRE 384 560 240 560
WIRE 464 560 464 528
WIRE 464 560 384 560
WIRE 384 592 384 560
WIRE 464 592 464 560
WIRE 96 688 96 624
WIRE 192 688 192 576
WIRE 192 688 96 688
WIRE 288 688 192 688
WIRE 384 688 384 656
WIRE 384 688 288 688
WIRE 464 688 464 672
WIRE 464 688 384 688
WIRE 288 720 288 688
FLAG -48 384 0
FLAG 0 112 0
FLAG 112 112 0
FLAG -64 0 v+
FLAG 176 0 v-
FLAG 352 288 v+
FLAG 352 224 v-
FLAG 512 256 vout
FLAG 288 720 0
SYMBOL OpAmps\\opamp2 352 320 M180
WINDOW 3 -38 132 Left 2
SYMATTR InstName U1
SYMATTR Value LF155
SYMBOL polcap 400 656 R180
WINDOW 0 24 57 Left 2
WINDOW 3 24 8 Left 2
SYMATTR InstName C1
SYMATTR Value 2.2µ
SYMBOL cap 176 384 R0
SYMATTR InstName C3
SYMATTR Value 330µ
SYMBOL cap -64 256 R0
SYMATTR InstName C2
SYMATTR Value 0.068µ
SYMBOL zener 624 432 R0
SYMATTR InstName D1
SYMATTR Value 1N750
SYMBOL diode 480 448 R180
WINDOW 0 24 64 Left 2
WINDOW 3 24 0 Left 2
SYMATTR InstName D2
SYMATTR Value 1N4148
SYMBOL res 448 576 R0
SYMATTR InstName R1
SYMATTR Value 1000K
SYMBOL res 416 352 R90
WINDOW 0 0 56 VBottom 2
WINDOW 3 32 56 VTop 2
SYMATTR InstName R2
SYMATTR Value 10k
SYMBOL res 448 112 R90
WINDOW 0 0 56 VBottom 2
WINDOW 3 32 56 VTop 2
SYMATTR InstName R3
SYMATTR Value 300k
SYMBOL cap 336 112 R90
WINDOW 0 0 32 VBottom 2
WINDOW 3 32 32 VTop 2
SYMATTR InstName C4
SYMATTR Value 0.068µ
SYMBOL voltage 0 16 R0
WINDOW 123 0 0 Left 0
WINDOW 39 0 0 Left 0
SYMATTR InstName V1
SYMATTR Value 2.8
SYMBOL voltage 112 16 R0
WINDOW 123 0 0 Left 0
WINDOW 39 0 0 Left 0
SYMATTR InstName V2
SYMATTR Value -2.8
SYMBOL res 16 240 R0
SYMATTR InstName R4
SYMATTR Value 300k
SYMBOL njf 240 480 M0
WINDOW 3 38 61 Left 2
SYMATTR InstName J1
SYMATTR Value 2N3819
SYMBOL res 80 528 R0
SYMATTR InstName R5
SYMATTR Value 500k
SYMBOL OpAmps\\OP07 704 80 R0
SYMATTR InstName U2
SYMBOL OpAmps\\UniversalOpAmp4 912 208 M180
SYMATTR InstName U3
SYMBOL zener 448 464 R0
SYMATTR InstName D3
SYMATTR Value BZX84B7V5LY
TEXT -112 698 Left 2 !.tran 10
TEXT 664 320 Left 2 !.include TL081.sub\n.include 2N3819.lib\n.include LF155.lib
