Version 4
SHEET 1 1636 680
WIRE 992 -272 944 -272
WIRE 944 -240 944 -272
WIRE 1152 -208 1136 -208
WIRE 1184 -208 1152 -208
WIRE 1184 -192 1184 -208
WIRE 1552 -192 1360 -192
WIRE 720 -176 -432 -176
WIRE -432 -160 -432 -176
WIRE 1152 -160 1152 -208
WIRE 1152 -160 1056 -160
WIRE 928 -112 736 -112
WIRE 1360 -112 1360 -192
WIRE 1408 -112 1360 -112
WIRE 1552 -96 1552 -192
WIRE 1552 -96 1472 -96
WIRE 1184 -64 1184 -112
WIRE 1248 -64 1184 -64
WIRE 176 -48 -16 -48
WIRE 1184 -48 1184 -64
WIRE -432 -32 -432 -80
WIRE -368 -32 -432 -32
WIRE -240 -32 -288 -32
WIRE 528 -32 336 -32
WIRE 736 -32 736 -112
WIRE 784 -32 736 -32
WIRE 928 -16 928 -112
WIRE 928 -16 848 -16
WIRE 960 -16 928 -16
WIRE 1056 -16 1056 -80
WIRE 1056 -16 1024 -16
WIRE 720 0 720 -176
WIRE 784 0 720 0
WIRE 1056 0 1056 -16
WIRE 1120 0 1056 0
WIRE -16 32 -16 -48
WIRE 32 32 -16 32
WIRE 1056 32 1056 0
WIRE -432 48 -432 -32
WIRE -384 48 -432 48
WIRE 176 48 176 -48
WIRE 176 48 96 48
WIRE 336 48 336 -32
WIRE 384 48 336 48
WIRE -240 64 -240 -32
WIRE -240 64 -320 64
WIRE -176 64 -240 64
WIRE -64 64 -96 64
WIRE 528 64 528 -32
WIRE 528 64 448 64
WIRE 576 64 528 64
WIRE 720 64 720 0
WIRE 720 64 656 64
WIRE 768 64 720 64
WIRE 1184 64 1184 48
WIRE -384 80 -416 80
WIRE 208 80 176 80
WIRE 320 80 288 80
WIRE 384 80 320 80
WIRE -64 112 -64 64
WIRE 176 112 176 80
WIRE 176 112 -64 112
WIRE -64 128 -64 112
WIRE 720 128 720 64
WIRE 320 144 320 80
WIRE 1056 144 1056 112
WIRE 1184 144 1056 144
WIRE 1184 160 1184 144
WIRE -416 208 -416 80
WIRE -64 256 -64 192
WIRE 224 256 -64 256
WIRE 320 256 320 208
WIRE 320 256 224 256
WIRE 720 256 720 192
WIRE 720 256 320 256
WIRE 224 288 224 256
FLAG 416 32 V+
FLAG 416 96 v-
FLAG -336 496 0
FLAG -224 432 v-
FLAG -224 512 0
FLAG -336 416 V+
FLAG 64 16 V+
FLAG 64 80 v-
FLAG -352 32 V+
FLAG -352 96 v-
FLAG 768 64 vout
IOPIN 768 64 Out
FLAG 224 288 0
FLAG -416 288 0
FLAG 944 -160 0
FLAG 992 -272 vcc
FLAG 1136 -208 vcc
FLAG 1184 160 0
FLAG 816 -48 V+
FLAG 816 16 v-
FLAG 1440 -128 V+
FLAG 1440 -64 v-
FLAG 1552 -96 vout2
FLAG 1248 -64 v_collector
SYMBOL OpAmps\\opamp2 416 0 R0
SYMATTR InstName U1
SYMATTR Value TL081
SYMBOL res 304 64 R90
WINDOW 0 0 56 VBottom 2
WINDOW 3 32 56 VTop 2
SYMATTR InstName R1
SYMATTR Value 100k
SYMBOL cap 304 144 R0
SYMATTR InstName C3
SYMATTR Value 100n
SYMBOL voltage -336 400 R0
WINDOW 123 0 0 Left 0
WINDOW 39 0 0 Left 0
SYMATTR InstName V1
SYMATTR Value 12
SYMBOL voltage -224 416 R0
WINDOW 123 0 0 Left 0
WINDOW 39 0 0 Left 0
SYMATTR InstName V2
SYMATTR Value 0
SYMBOL OpAmps\\opamp2 64 -16 R0
SYMATTR InstName U2
SYMATTR Value TL081
SYMBOL cap -80 128 R0
SYMATTR InstName C1
SYMATTR Value 100n
SYMBOL res -80 48 R90
WINDOW 0 0 56 VBottom 2
WINDOW 3 32 56 VTop 2
SYMATTR InstName R2
SYMATTR Value 100k
SYMBOL res 672 48 R90
WINDOW 0 0 56 VBottom 2
WINDOW 3 32 56 VTop 2
SYMATTR InstName R3
SYMATTR Value 33k
SYMBOL OpAmps\\opamp2 -352 0 R0
SYMATTR InstName U3
SYMATTR Value TL081
SYMBOL res -272 -48 R90
WINDOW 0 0 56 VBottom 2
WINDOW 3 32 56 VTop 2
SYMATTR InstName R4
SYMATTR Value 10.3Meg
SYMBOL res -448 -64 M180
WINDOW 0 36 76 Left 2
WINDOW 3 36 40 Left 2
SYMATTR InstName R5
SYMATTR Value 10k
SYMBOL cap 704 128 R0
SYMATTR InstName C2
SYMATTR Value 100n
SYMBOL voltage -416 192 R0
WINDOW 123 0 0 Left 0
WINDOW 39 0 0 Left 0
SYMATTR InstName V3
SYMATTR Value 6
SYMBOL npn 1120 -48 R0
SYMATTR InstName Q1
SYMATTR Value 2N2222
SYMBOL voltage 944 -256 R0
WINDOW 123 0 0 Left 0
WINDOW 39 0 0 Left 0
SYMATTR InstName V4
SYMATTR Value 12
SYMBOL res 1168 48 R0
SYMATTR InstName R6
SYMATTR Value 4800
SYMBOL res 1168 -208 R0
SYMATTR InstName R7
SYMATTR Value 80k
SYMBOL res 1040 -176 R0
SYMATTR InstName R8
SYMATTR Value 120k
SYMBOL res 1040 16 R0
SYMATTR InstName R9
SYMATTR Value 10k
SYMBOL OpAmps\\opamp2 816 -80 R0
SYMATTR InstName U4
SYMATTR Value TL081
SYMBOL cap 1024 -32 R90
WINDOW 0 0 32 VBottom 2
WINDOW 3 32 32 VTop 2
SYMATTR InstName C5
SYMATTR Value 220µ
SYMBOL OpAmps\\opamp2 1440 -160 R0
SYMATTR InstName U5
SYMATTR Value TL081
TEXT -112 368 Left 2 !.tran 0 500m 0 10u\n.include tip41c.lib
TEXT -112 424 Left 2 !.include TL081.sub
