.model BC548  NPN(Is=16.9f  Xti=3 Eg=1.11 Vaf=56.7  Bf=1.16K Ise=154f   Ne=1.5   Ikf=29.5m Nk=.5381 Xtb=1.5 Br=5   Isc=154f   Nc=1.5   Ikr=29.5m Rc=1     Cjc=3.35p Mjc=.489  Vjc=3.57 Fc=.5 Cje=6.85p Mje=.432  Vje=1.09 Tr=103n Tf=796p   Itf=1.12 Xtf=26.19 Vtf=10 Vceo=65 Icrating=100m Nf=1 Nr=1 Re=567M Rb=10 Var=28.3 Kf=0 Af=1 )
.model BC548A NPN(Is=7.049f Xti=3 Eg=1.11 Vaf=54.76 Bf=175   Ise=78.17f Ne=1.479 Ikf=24.96m Nk=.5381 Xtb=1.5 Br=1.2 Isc=27.51f Nc=1.775 Ikr=3.321 Rc=.9706 Cjc=4.25p Mjc=.3147 Vjc=.5697 Fc=.5 Cje=11.5p Mje=.6715 Vje=.5   Tr=10n  Tf=410.7p Itf=1.12 Xtf=26.19 Vtf=10 Vceo=65 Icrating=100m mfg=Fairchild )
.model BC548B NPN(Is=7.049f Xti=3 Eg=1.11 Vaf=54.76 Bf=250   Ise=78.17f Ne=1.479 Ikf=24.96m Nk=.5381 Xtb=1.5 Br=1.2 Isc=27.51f Nc=1.775 Ikr=3.321 Rc=.9706 Cjc=4.25p Mjc=.3147 Vjc=.5697 Fc=.5 Cje=11.5p Mje=.6715 Vje=.5   Tr=10n  Tf=410.7p Itf=1.12 Xtf=26.19 Vtf=10 Vceo=65 Icrating=100m mfg=Fairchild )
.model BC548C NPN(Is=7.049f Xti=3 Eg=1.11 Vaf=54.76 Bf=543.1 Ise=78.17f Ne=1.479 Ikf=24.96m Nk=.5381 Xtb=1.5 Br=1.2 Isc=27.51f Nc=1.775 Ikr=3.321 Rc=.9706 Cjc=4.25p Mjc=.3147 Vjc=.5697 Fc=.5 Cje=11.5p Mje=.6715 Vje=.5   Tr=10n  Tf=410.7p Itf=1.12 Xtf=26.19 Vtf=10 Vceo=65 Icrating=100m mfg=Fairchild )
.MODEL BC549/50 NPN LEVEL=1 IS=2.24183E-14 NF=0.996496 ISE=1.90217E-14 NE=2 BF=228.4 IKF=0.211766 VAF=161.939 NR=0.993 ISC=4.7863E-15 NC=0.996 BR=12.1807 IKR=0.3423 VAR=123.229 RB=167.033 IRB=7.079458E-05 RBM=1.12256 RE=0.036 RC=0.79 XTB=1.65 EG=1.1737 XTI=3 CJE=1.87E-11 VJE=0.732 MJE=0.33 CJC=6.16E-12 VJC=0.395 MJC=0.251 XCJC=0.6192 FC=0.5 TF=518.15E-12 XTF=10 VTF=10 ITF=1 TR=10n Vceo=45 Icrating=100m mfg=Fairchild
.MODEL BD135/7/9 NPN ( IS=2.3985E-13 BF=244.9 NF=1.0 BR=78.11 NR=1.007 ISE=1.0471E-14 NE=1.2 ISC=1.9314E-11 NC=1.45 VAF=98.5 VAR=7.46 IKF=1.1863 IKR=0.1445 RB=2.14 RBM=0.001 IRB=0.031 RE=0.0832 RC=0.01 CJE=2.92702E-10 VJE=0.67412 MJE=0.3300 FC=0.5 CJC=4.8831E-11 VJC=0.5258 MJC=0.3928 XCJC=0.5287 XTB=1.1398 EG=1.2105 XTI=3.0 Vceo=45 Icrating=1.5 mfg=Fairchild )
.MODEL BF199  NPN(IS=4.031E-16 NF=0.9847 ISE=9.187E-17 NE=1.24 BF=122.5 IKF=0.065 VAF=135 NR=0.991 ISC=4.1E-13 NC=1.37 BR=5.036 IKR=0.04 VAR=8 RB=16 IRB=0.0004 RBM=8 RE=0.402 RC=5 XTB=0 EG=1.11 XTI=3 CJE=2.258E-12 VJE=0.444 MJE=0.136 TF=2.92E-10 XTF=8 VTF=8 ITF=0.14 PTF=20 CJC=9.333E-13 VJC=0.2488 MJC=0.1974 XCJC=0.86 TR=35n CJS=0 VJS=0.75 MJS=0.333 FC=0.9001)
.MODEL BC558A PNP(IS=2.059E-14 NF=1.003 ISE=2.971E-15 NE=1.316 BF=227.3 IKF=0.08719 VAF=37.2 NR=1.007 ISC=1.339E-14 NC=1.15 BR=7.69 IKR=0.07646 VAR=11.42 RB=1 IRB=1E-06 RBM=1 RE=0.688 RC=0.6437 XTB=0 EG=1.11 XTI=3 CJE=1.4E-11 VJE=0.5912 MJE=0.3572 TF=7.046E-10 XTF=4.217 VTF=5.367 ITF=0.1947 PTF=0 CJC=1.113E-11 VJC=0.1 MJC=0.3414 XCJC=0.6288 TR=1E-32 CJS=0 VJS=0.75 MJS=0.333 FC=0.7947)
.MODEL BD136  PNP(IS=1e-09 BF=681.414 NF=0.85 VAF=10 IKF=0.196957 ISE=1e-08 NE=1.57381 BR=56.5761 NR=1.5 VAR=0.975138 IKR=0.952908 ISC=1e-08 NC=3.58666 RB=40.4245 IRB=0.1 RBM=0.106663 RE=0.00034585 RC=1.31191 XTB=22.4074 XTI=1 EG=1.05 CJE=1e-11 VJE=0.75 MJE=0.33 TF=1e-09 XTF=1 VTF=10 ITF=0.01 CJC=1e-11 VJC=0.75 MJC=0.33 XCJC=0.9 FC=0.5 CJS=0 VJS=0.75 MJS=0.5 TR=1e-07 PTF=0 KF=0 AF=1)
.model TIP41C npn(IS=7.55826e-11 BF=260.542 NF=1.11221 VAF=100 IKF=0.526814 ISE=1e-08 NE=2.18072 BR=26.0542 NR=1.5 VAR=1000 IKR=3.54059 ISC=1e-08 NC=1.63849 RB=4.56157 IRB=0.1 RBM=0.1 RE=0.0162111 RC=0.0810556 XTB=0.1 XTI=1 EG=1.206 CJE=1.93296e-10 VJE=0.4 MJE=0.259503 TF=1e-08 XTF=4.06972 VTF=7.1157 ITF=0.001 CJC=1.09657e-10 VJC=0.730921 MJC=0.23 XCJC=0.803085 FC=0.8 CJS=0 VJS=0.75 MJS=0.5 TR=9.01013e-08 PTF=0 KF=0 AF=1)
.model TIP42C pnp(IS=5.65618e-10 BF=120.073 NF=1.24004 VAF=90.6071 IKF=1.46498 ISE=6.98929e-14 NE=4 BR=2.83268 NR=1.30331 VAR=27.1221 IKR=10 ISC=6.98934e-14 NC=3.78125 RB=4.71382 IRB=0.234602 RBM=0.12691 RE=0.000666374 RC=0.0927424 XTB=3.21145 XTI=1 EG=1.05 CJE=1.93221e-10 VJE=0.4 MJE=0.259369 TF=9.99163e-09 XTF=4.41941 VTF=6.53488 ITF=0.001 CJC=1.0962e-10 VJC=0.731968 MJC=0.23 XCJC=0.799902 FC=0.799995 CJS=0 VJS=0.75 MJS=0.5 TR=1e-07 PTF=0 KF=0 AF=1)
.model TIP32  pnp(IS=1e-09 BF=134.366 NF=1.29961 VAF=10 IKF=0.742988  ISE=1e-16 NE=1.40014 BR=0.1 NR=1.46599 VAR=100 IKR=3.21978  ISC=1e-16 NC=2.71657 RB=7.44433 IRB=2.41268 RBM=0.218936   RE=0.0152284 RC=0.0761421 XTB=0.1 XTI=1 EG=1.05 CJE=3.26474e-10 VJE=0.446178 MJE=0.464223 TF=1e-08       XTF=3.50642 VTF=8.2848  ITF=0.0305862 CJC=3.07595e-10 VJC=0.77548  MJC=0.476497 XCJC=0.799334 FC=0.8      CJS=0 VJS=0.75 MJS=0.5 TR=9.57121e-06 PTF=0 KF=0 AF=1)
.model TIP32C pnp(IS=1e-09 BF=134.366 NF=1.29961 VAF=10 IKF=0.742988  ISE=1e-16 NE=1.40014 BR=0.1 NR=1.46599 VAR=100 IKR=3.21978  ISC=1e-16 NC=2.71657 RB=7.44433 IRB=2.41268 RBM=0.218936   RE=0.0152284 RC=0.0761421 XTB=0.1 XTI=1 EG=1.05 CJE=3.26474e-10 VJE=0.446178 MJE=0.464223 TF=1e-08       XTF=3.50642 VTF=8.2848  ITF=0.0305862 CJC=3.07595e-10 VJC=0.77548  MJC=0.476497 XCJC=0.799334 FC=0.8      CJS=0 VJS=0.75 MJS=0.5 TR=1e-07 PTF=0 KF=0 AF=1)
.model TIP31B npn(IS=1e-09 BF=3656.16 NF=1.23899 VAF=10 IKF=0.0333653 ISE=1e-08 NE=2.29374 BR=0.1 NR=1.5     VAR=100 IKR=0.333653 ISC=1e-08 NC=1.75728 RB=6.15083 IRB=100 RBM=0.00113049 RE=0.0001    RC=0.0491489 XTB=50  XTI=1 EG=1.05 CJE=3.26475e-10 VJE=0.446174 MJE=0.464221 TF=2.06218e-09 XTF=15.0842 VTF=25.7317 ITF=0.001     CJC=3.07593e-10 VJC=0.775484 MJC=0.476498 XCJC=0.750493 FC=0.796407 CJS=0 VJS=0.75 MJS=0.5 TR=9.57121e-06 PTF=0 KF=0 AF=1)

